<?xml version="1.0" encoding="UTF-8"?>

<!-- generated on 2025-12-26 13:17:01 by Eclipse SUMO netedit Version 1.24.0
<neteditConfiguration xmlns:xsi="http://www.w3.org/2001/XMLSchema-instance" xsi:noNamespaceSchemaLocation="http://sumo.dlr.de/xsd/neteditConfiguration.xsd">

    <input>
        <sumo-net-file value="D:\ZuoYe\sumo\111.net.xml"/>
    </input>

    <output>
        <output-file value="D:\ZuoYe\sumo\111.net.xml"/>
    </output>

    <processing>
        <offset.disable-normalization value="true"/>
    </processing>

    <junctions>
        <no-turnarounds value="true"/>
    </junctions>

    <netedit>
        <new-network value="false"/>
    </netedit>

</neteditConfiguration>
-->

<net version="1.20" junctionCornerDetail="5" limitTurnSpeed="5.50" xmlns:xsi="http://www.w3.org/2001/XMLSchema-instance" xsi:noNamespaceSchemaLocation="http://sumo.dlr.de/xsd/net_file.xsd">

    <location netOffset="0.00,0.00" convBoundary="-100.00,-100.00,100.00,100.00" origBoundary="10000000000.00,10000000000.00,-10000000000.00,-10000000000.00" projParameter="!"/>

    <edge id=":J1_0" function="internal">
        <lane id=":J1_0_0" index="0" disallow="pedestrian tram rail_urban rail rail_electric rail_fast ship container cable_car subway aircraft drone" speed="6.51" length="9.03" shape="-8.00,13.60 -8.35,11.15 -9.40,9.40 -11.15,8.35 -13.60,8.00"/>
    </edge>
    <edge id=":J1_1" function="internal">
        <lane id=":J1_1_0" index="0" disallow="pedestrian tram rail_urban rail rail_electric rail_fast ship container cable_car subway aircraft drone" speed="13.89" length="27.20" shape="-4.80,13.60 -4.80,-13.60"/>
    </edge>
    <edge id=":J1_2" function="internal">
        <lane id=":J1_2_0" index="0" disallow="pedestrian tram rail_urban rail rail_electric rail_fast ship container cable_car subway aircraft drone" speed="10.36" length="24.51" shape="-1.60,13.60 -0.65,6.95 2.20,2.20 6.95,-0.65 13.60,-1.60"/>
    </edge>
    <edge id=":J1_3" function="internal">
        <lane id=":J1_3_0" index="0" disallow="pedestrian tram rail_urban rail rail_electric rail_fast ship container cable_car subway aircraft drone" speed="6.51" length="9.03" shape="13.60,8.00 11.15,8.35 9.40,9.40 8.35,11.15 8.00,13.60"/>
    </edge>
    <edge id=":J1_4" function="internal">
        <lane id=":J1_4_0" index="0" disallow="pedestrian tram rail_urban rail rail_electric rail_fast ship container cable_car subway aircraft drone" speed="13.89" length="27.20" shape="13.60,4.80 -13.60,4.80"/>
    </edge>
    <edge id=":J1_5" function="internal">
        <lane id=":J1_5_0" index="0" disallow="pedestrian tram rail_urban rail rail_electric rail_fast ship container cable_car subway aircraft drone" speed="10.36" length="24.51" shape="13.60,1.60 6.95,0.65 2.20,-2.20 -0.65,-6.95 -1.60,-13.60"/>
    </edge>
    <edge id=":J1_6" function="internal">
        <lane id=":J1_6_0" index="0" disallow="pedestrian tram rail_urban rail rail_electric rail_fast ship container cable_car subway aircraft drone" speed="6.51" length="9.03" shape="8.00,-13.60 8.35,-11.15 9.40,-9.40 11.15,-8.35 13.60,-8.00"/>
    </edge>
    <edge id=":J1_7" function="internal">
        <lane id=":J1_7_0" index="0" disallow="pedestrian tram rail_urban rail rail_electric rail_fast ship container cable_car subway aircraft drone" speed="13.89" length="27.20" shape="4.80,-13.60 4.80,13.60"/>
    </edge>
    <edge id=":J1_8" function="internal">
        <lane id=":J1_8_0" index="0" disallow="pedestrian tram rail_urban rail rail_electric rail_fast ship container cable_car subway aircraft drone" speed="10.36" length="24.51" shape="1.60,-13.60 0.65,-6.95 -2.20,-2.20 -6.95,0.65 -13.60,1.60"/>
    </edge>
    <edge id=":J1_9" function="internal">
        <lane id=":J1_9_0" index="0" disallow="pedestrian tram rail_urban rail rail_electric rail_fast ship container cable_car subway aircraft drone" speed="6.51" length="9.03" shape="-13.60,-8.00 -11.15,-8.35 -9.40,-9.40 -8.35,-11.15 -8.00,-13.60"/>
    </edge>
    <edge id=":J1_10" function="internal">
        <lane id=":J1_10_0" index="0" disallow="pedestrian tram rail_urban rail rail_electric rail_fast ship container cable_car subway aircraft drone" speed="13.89" length="27.20" shape="-13.60,-4.80 13.60,-4.80"/>
    </edge>
    <edge id=":J1_11" function="internal">
        <lane id=":J1_11_0" index="0" disallow="pedestrian tram rail_urban rail rail_electric rail_fast ship container cable_car subway aircraft drone" speed="10.36" length="24.51" shape="-13.60,-1.60 -6.95,-0.65 -2.20,2.20 0.65,6.95 1.60,13.60"/>
    </edge>

    <edge id="E0" from="J0" to="J1" priority="-1">
        <lane id="E0_0" index="0" disallow="pedestrian tram rail_urban rail rail_electric rail_fast ship container cable_car subway aircraft drone" speed="13.89" length="86.40" shape="-100.00,-8.00 -13.60,-8.00"/>
        <lane id="E0_1" index="1" disallow="pedestrian tram rail_urban rail rail_electric rail_fast ship container cable_car subway aircraft drone" speed="13.89" length="86.40" shape="-100.00,-4.80 -13.60,-4.80"/>
        <lane id="E0_2" index="2" disallow="pedestrian tram rail_urban rail rail_electric rail_fast ship container cable_car subway aircraft drone" speed="13.89" length="86.40" shape="-100.00,-1.60 -13.60,-1.60"/>
    </edge>
    <edge id="E1" from="J2" to="J1" priority="-1">
        <lane id="E1_0" index="0" disallow="pedestrian tram rail_urban rail rail_electric rail_fast ship container cable_car subway aircraft drone" speed="13.89" length="86.40" shape="-8.00,100.00 -8.00,13.60"/>
        <lane id="E1_1" index="1" disallow="pedestrian tram rail_urban rail rail_electric rail_fast ship container cable_car subway aircraft drone" speed="13.89" length="86.40" shape="-4.80,100.00 -4.80,13.60"/>
        <lane id="E1_2" index="2" disallow="pedestrian tram rail_urban rail rail_electric rail_fast ship container cable_car subway aircraft drone" speed="13.89" length="86.40" shape="-1.60,100.00 -1.60,13.60"/>
    </edge>
    <edge id="E2" from="J3" to="J1" priority="-1">
        <lane id="E2_0" index="0" disallow="pedestrian tram rail_urban rail rail_electric rail_fast ship container cable_car subway aircraft drone" speed="13.89" length="86.40" shape="100.00,8.00 13.60,8.00"/>
        <lane id="E2_1" index="1" disallow="pedestrian tram rail_urban rail rail_electric rail_fast ship container cable_car subway aircraft drone" speed="13.89" length="86.40" shape="100.00,4.80 13.60,4.80"/>
        <lane id="E2_2" index="2" disallow="pedestrian tram rail_urban rail rail_electric rail_fast ship container cable_car subway aircraft drone" speed="13.89" length="86.40" shape="100.00,1.60 13.60,1.60"/>
    </edge>
    <edge id="E3" from="J4" to="J1" priority="-1">
        <lane id="E3_0" index="0" disallow="pedestrian tram rail_urban rail rail_electric rail_fast ship container cable_car subway aircraft drone" speed="13.89" length="86.40" shape="8.00,-100.00 8.00,-13.60"/>
        <lane id="E3_1" index="1" disallow="pedestrian tram rail_urban rail rail_electric rail_fast ship container cable_car subway aircraft drone" speed="13.89" length="86.40" shape="4.80,-100.00 4.80,-13.60"/>
        <lane id="E3_2" index="2" disallow="pedestrian tram rail_urban rail rail_electric rail_fast ship container cable_car subway aircraft drone" speed="13.89" length="86.40" shape="1.60,-100.00 1.60,-13.60"/>
    </edge>
    <edge id="E4" from="J1" to="J0" priority="-1">
        <lane id="E4_0" index="0" disallow="pedestrian tram rail_urban rail rail_electric rail_fast ship container cable_car subway aircraft drone" speed="13.89" length="86.40" shape="-13.60,8.00 -100.00,8.00"/>
        <lane id="E4_1" index="1" disallow="pedestrian tram rail_urban rail rail_electric rail_fast ship container cable_car subway aircraft drone" speed="13.89" length="86.40" shape="-13.60,4.80 -100.00,4.80"/>
        <lane id="E4_2" index="2" disallow="pedestrian tram rail_urban rail rail_electric rail_fast ship container cable_car subway aircraft drone" speed="13.89" length="86.40" shape="-13.60,1.60 -100.00,1.60"/>
    </edge>
    <edge id="E5" from="J1" to="J2" priority="-1">
        <lane id="E5_0" index="0" disallow="pedestrian tram rail_urban rail rail_electric rail_fast ship container cable_car subway aircraft drone" speed="13.89" length="86.40" shape="8.00,13.60 8.00,100.00"/>
        <lane id="E5_1" index="1" disallow="pedestrian tram rail_urban rail rail_electric rail_fast ship container cable_car subway aircraft drone" speed="13.89" length="86.40" shape="4.80,13.60 4.80,100.00"/>
        <lane id="E5_2" index="2" disallow="pedestrian tram rail_urban rail rail_electric rail_fast ship container cable_car subway aircraft drone" speed="13.89" length="86.40" shape="1.60,13.60 1.60,100.00"/>
    </edge>
    <edge id="E6" from="J1" to="J3" priority="-1">
        <lane id="E6_0" index="0" disallow="pedestrian tram rail_urban rail rail_electric rail_fast ship container cable_car subway aircraft drone" speed="13.89" length="86.40" shape="13.60,-8.00 100.00,-8.00"/>
        <lane id="E6_1" index="1" disallow="pedestrian tram rail_urban rail rail_electric rail_fast ship container cable_car subway aircraft drone" speed="13.89" length="86.40" shape="13.60,-4.80 100.00,-4.80"/>
        <lane id="E6_2" index="2" disallow="pedestrian tram rail_urban rail rail_electric rail_fast ship container cable_car subway aircraft drone" speed="13.89" length="86.40" shape="13.60,-1.60 100.00,-1.60"/>
    </edge>
    <edge id="E7" from="J1" to="J4" priority="-1">
        <lane id="E7_0" index="0" disallow="pedestrian tram rail_urban rail rail_electric rail_fast ship container cable_car subway aircraft drone" speed="13.89" length="86.40" shape="-8.00,-13.60 -8.00,-100.00"/>
        <lane id="E7_1" index="1" disallow="pedestrian tram rail_urban rail rail_electric rail_fast ship container cable_car subway aircraft drone" speed="13.89" length="86.40" shape="-4.80,-13.60 -4.80,-100.00"/>
        <lane id="E7_2" index="2" disallow="pedestrian tram rail_urban rail rail_electric rail_fast ship container cable_car subway aircraft drone" speed="13.89" length="86.40" shape="-1.60,-13.60 -1.60,-100.00"/>
    </edge>

    <tlLogic id="J1" type="static" programID="0" offset="0">
        <phase duration="27" state="GGrGrrGGrGrr"/>
        <phase duration="3"  state="GyrGrrGyrGrr"/>
        <phase duration="27" state="GrGGrrGrGGrr"/>
        <phase duration="3"  state="GryGrrGryGrr"/>
        <phase duration="27" state="GrrGGrGrrGGr"/>
        <phase duration="3"  state="GrrGyrGrrGyr"/>
        <phase duration="27" state="GrrGrGGrrGrG"/>
        <phase duration="3"  state="GrrGryGrrGry"/>
    </tlLogic>

    <junction id="J0" type="dead_end" x="-100.00" y="0.00" incLanes="E4_0 E4_1 E4_2" intLanes="" shape="-100.00,0.00 -100.00,9.60 -100.00,0.00"/>
    <junction id="J1" type="traffic_light" x="0.00" y="0.00" incLanes="E1_0 E1_1 E1_2 E2_0 E2_1 E2_2 E3_0 E3_1 E3_2 E0_0 E0_1 E0_2" intLanes=":J1_0_0 :J1_1_0 :J1_2_0 :J1_3_0 :J1_4_0 :J1_5_0 :J1_6_0 :J1_7_0 :J1_8_0 :J1_9_0 :J1_10_0 :J1_11_0" shape="-9.60,13.60 9.60,13.60 10.04,11.38 10.60,10.60 11.38,10.04 12.38,9.71 13.60,9.60 13.60,-9.60 11.38,-10.04 10.60,-10.60 10.04,-11.38 9.71,-12.38 9.60,-13.60 -9.60,-13.60 -10.04,-11.38 -10.60,-10.60 -11.38,-10.04 -12.38,-9.71 -13.60,-9.60 -13.60,9.60 -11.38,10.04 -10.60,10.60 -10.04,11.38 -9.71,12.38">
        <request index="0"  response="000000000000" foes="000000000000" cont="0"/>
        <request index="1"  response="000000000000" foes="110100010000" cont="0"/>
        <request index="2"  response="000010000000" foes="100010110000" cont="0"/>
        <request index="3"  response="000000000000" foes="000000000000" cont="0"/>
        <request index="4"  response="000010000110" foes="100010000110" cont="0"/>
        <request index="5"  response="010110000100" foes="010110000100" cont="0"/>
        <request index="6"  response="000000000000" foes="000000000000" cont="0"/>
        <request index="7"  response="000000000000" foes="010000110100" cont="0"/>
        <request index="8"  response="000000000010" foes="110000100010" cont="0"/>
        <request index="9"  response="000000000000" foes="000000000000" cont="0"/>
        <request index="10" response="000110000010" foes="000110100010" cont="0"/>
        <request index="11" response="000100010110" foes="000100010110" cont="0"/>
    </junction>
    <junction id="J2" type="dead_end" x="0.00" y="100.00" incLanes="E5_0 E5_1 E5_2" intLanes="" shape="0.00,100.00 9.60,100.00 0.00,100.00"/>
    <junction id="J3" type="dead_end" x="100.00" y="0.00" incLanes="E6_0 E6_1 E6_2" intLanes="" shape="100.00,0.00 100.00,-9.60 100.00,0.00"/>
    <junction id="J4" type="dead_end" x="0.00" y="-100.00" incLanes="E7_0 E7_1 E7_2" intLanes="" shape="0.00,-100.00 -9.60,-100.00 0.00,-100.00"/>

    <connection from="E0" to="E7" fromLane="0" toLane="0" via=":J1_9_0" tl="J1" linkIndex="9" dir="r" state="O"/>
    <connection from="E0" to="E6" fromLane="1" toLane="1" via=":J1_10_0" tl="J1" linkIndex="10" dir="s" state="o"/>
    <connection from="E0" to="E5" fromLane="2" toLane="2" via=":J1_11_0" tl="J1" linkIndex="11" dir="l" state="o"/>
    <connection from="E1" to="E4" fromLane="0" toLane="0" via=":J1_0_0" tl="J1" linkIndex="0" dir="r" state="O"/>
    <connection from="E1" to="E7" fromLane="1" toLane="1" via=":J1_1_0" tl="J1" linkIndex="1" dir="s" state="O"/>
    <connection from="E1" to="E6" fromLane="2" toLane="2" via=":J1_2_0" tl="J1" linkIndex="2" dir="l" state="o"/>
    <connection from="E2" to="E5" fromLane="0" toLane="0" via=":J1_3_0" tl="J1" linkIndex="3" dir="r" state="O"/>
    <connection from="E2" to="E4" fromLane="1" toLane="1" via=":J1_4_0" tl="J1" linkIndex="4" dir="s" state="o"/>
    <connection from="E2" to="E7" fromLane="2" toLane="2" via=":J1_5_0" tl="J1" linkIndex="5" dir="l" state="o"/>
    <connection from="E3" to="E6" fromLane="0" toLane="0" via=":J1_6_0" tl="J1" linkIndex="6" dir="r" state="O"/>
    <connection from="E3" to="E5" fromLane="1" toLane="1" via=":J1_7_0" tl="J1" linkIndex="7" dir="s" state="O"/>
    <connection from="E3" to="E4" fromLane="2" toLane="2" via=":J1_8_0" tl="J1" linkIndex="8" dir="l" state="o"/>

    <connection from=":J1_0" to="E4" fromLane="0" toLane="0" dir="r" state="M"/>
    <connection from=":J1_1" to="E7" fromLane="0" toLane="1" dir="s" state="M"/>
    <connection from=":J1_2" to="E6" fromLane="0" toLane="2" dir="l" state="M"/>
    <connection from=":J1_3" to="E5" fromLane="0" toLane="0" dir="r" state="M"/>
    <connection from=":J1_4" to="E4" fromLane="0" toLane="1" dir="s" state="M"/>
    <connection from=":J1_5" to="E7" fromLane="0" toLane="2" dir="l" state="M"/>
    <connection from=":J1_6" to="E6" fromLane="0" toLane="0" dir="r" state="M"/>
    <connection from=":J1_7" to="E5" fromLane="0" toLane="1" dir="s" state="M"/>
    <connection from=":J1_8" to="E4" fromLane="0" toLane="2" dir="l" state="M"/>
    <connection from=":J1_9" to="E7" fromLane="0" toLane="0" dir="r" state="M"/>
    <connection from=":J1_10" to="E6" fromLane="0" toLane="1" dir="s" state="M"/>
    <connection from=":J1_11" to="E5" fromLane="0" toLane="2" dir="l" state="M"/>

</net>
